Circuit: * C:\Users\ASUS\OneDrive - Chiang Mai University\Documents\LTspiceXVII\252330 lab\bjt-char-lab\ltspice\bjt-lab.asc

.step ib=0
.OP point found by inspection.
.step ib=2e-006
.step ib=4e-006
.step ib=6e-006
.step ib=8e-006
.step ib=1e-005

Date: Tue Jul 27 13:09:46 2021
Total elapsed time: 0.744 seconds.

tnom = 27
temp = 27
method = trap
totiter = 610
traniter = 0
tranpoints = 0
accept = 0
rejected = 0
matrix size = 3
fillins = 0
solver = Normal
Matrix Compiler1:       5 opcodes  0.1/0.1/[0.1]
Matrix Compiler2: off  [0.1]/0.1/0.1

