Circuit: * C:\Users\ASUS\OneDrive - Chiang Mai University\Documents\LTspiceXVII\252330 lab\bjt-amp-lab\1-1.asc

Direct Newton iteration for .op point succeeded.
Changing Tseed to 9.76562e-010

Date: Mon Jul 26 14:42:17 2021
Total elapsed time: 0.362 seconds.

tnom = 27
temp = 27
method = modified trap
totiter = 2094
traniter = 2087
tranpoints = 1040
accept = 1039
rejected = 0
matrix size = 8
fillins = 0
solver = Normal
Matrix Compiler1: 380 bytes object code size  0.3/0.2/[0.2]
Matrix Compiler2: 582 bytes object code size  0.2/0.3/[0.2]

