Circuit: * C:\Users\ASUS\OneDrive - Chiang Mai University\Documents\LTspiceXVII\252330 lab\bjt-amp-lab\1-2.asc

Direct Newton iteration for .op point succeeded.

Date: Tue Jul 20 23:16:57 2021
Total elapsed time: 0.220 seconds.

tnom = 27
temp = 27
method = modified trap
totiter = 2091
traniter = 2084
tranpoints = 1042
accept = 1042
rejected = 0
matrix size = 7
fillins = 0
solver = Normal
Matrix Compiler1:      16 opcodes  0.1/[0.1]/0.1
Matrix Compiler2: 469 bytes object code size  0.1/0.1/[0.1]

