Circuit: * C:\Users\ASUS\OneDrive - Chiang Mai University\Documents\LTspiceXVII\252330 lab\bjt-amp-lab\1-3(2nd).asc

Direct Newton iteration for .op point succeeded.

Date: Sun Jul 25 15:17:22 2021
Total elapsed time: 0.125 seconds.

tnom = 27
temp = 27
method = modified trap
totiter = 2200
traniter = 2193
tranpoints = 1066
accept = 1060
rejected = 6
matrix size = 8
fillins = 0
solver = Normal
Matrix Compiler1: 380 bytes object code size  0.2/0.1/[0.1]
Matrix Compiler2: 582 bytes object code size  0.1/0.2/[0.1]

