Circuit: * C:\Users\ASUS\OneDrive - Chiang Mai University\Documents\LTspiceXVII\252330 lab\bjt-char-lab\bjt-lab.asc

.step ib=0
.OP point found by inspection.
.step ib=1
.step ib=2
.step ib=3
.step ib=4
.step ib=5
.step ib=6
.step ib=7
.step ib=8
.step ib=9
.step ib=10

Date: Mon Jul 05 02:29:30 2021
Total elapsed time: 0.487 seconds.

tnom = 27
temp = 27
method = trap
totiter = 610
traniter = 0
tranpoints = 0
accept = 0
rejected = 0
matrix size = 3
fillins = 0
solver = Normal
Matrix Compiler1: off  [0.0]/0.0/0.0
Matrix Compiler2: 163 bytes object code size  0.0/0.1/[0.0]

