Circuit: * C:\Users\ASUS\OneDrive - Chiang Mai University\Documents\LTspiceXVII\252330 lab\bjt-char-lab\Draft1.asc

Direct Newton iteration for .op point succeeded.

Date: Sun Jul 11 14:35:48 2021
Total elapsed time: 0.168 seconds.

tnom = 27
temp = 27
method = modified trap
totiter = 2090
traniter = 2082
tranpoints = 1042
accept = 1042
rejected = 0
matrix size = 8
fillins = 0
solver = Normal
Matrix Compiler1: 380 bytes object code size  0.4/0.3/[0.2]
Matrix Compiler2: 582 bytes object code size  0.3/0.4/[0.3]

