Circuit: * C:\Users\ASUS\OneDrive - Chiang Mai University\Documents\LTspiceXVII\252330 lab\bjt-amp-lab\1-1.asc

Direct Newton iteration for .op point succeeded.

Date: Mon Jul 26 14:49:37 2021
Total elapsed time: 0.284 seconds.

tnom = 27
temp = 27
method = trap
totiter = 7
traniter = 0
tranpoints = 0
accept = 0
rejected = 0
matrix size = 8
fillins = 0
solver = Normal
Matrix Compiler1:      20 opcodes
Matrix Compiler2: 594 bytes object code size
