Circuit: * C:\Users\ASUS\OneDrive - Chiang Mai University\Documents\LTspiceXVII\252330 lab\bjt-amp-lab\ltspice\1-1.asc

WARNING: Node NC_02 is floating.
WARNING: Node VOUT is floating.

WARNING: Less than two connections to node NC_01.  This node is used by RL.
WARNING: Less than two connections to node NC_02.  This node is used by RL.
WARNING: Less than two connections to node VOUT.  This node is used by C3.
Direct Newton iteration for .op point succeeded.
Fatal Error: Analysis Failed: Matrix is singular
