Circuit: * C:\Users\ASUS\OneDrive - Chiang Mai University\Documents\LTspiceXVII\252330 lab\bjt-amp-lab\ltspice\1-2.asc

Direct Newton iteration for .op point succeeded.

Date: Fri Jul 30 02:14:44 2021
Total elapsed time: 0.277 seconds.

tnom = 27
temp = 27
method = trap
totiter = 7
traniter = 0
tranpoints = 0
accept = 0
rejected = 0
matrix size = 6
fillins = 0
solver = Normal
Matrix Compiler1:      14 opcodes
Matrix Compiler2: 422 bytes object code size
