Circuit: * C:\Users\ASUS\OneDrive - Chiang Mai University\Documents\LTspiceXVII\252330 lab\bjt-char-lab\1-3.asc

Direct Newton iteration for .op point succeeded.

Date: Fri Jul 02 22:54:15 2021
Total elapsed time: 0.129 seconds.

tnom = 27
temp = 27
method = modified trap
totiter = 2092
traniter = 2085
tranpoints = 1042
accept = 1042
rejected = 0
matrix size = 8
fillins = 0
solver = Normal
Matrix Compiler1: 380 bytes object code size  0.3/0.2/[0.1]
Matrix Compiler2: 582 bytes object code size  0.2/0.3/[0.2]

